Version 4
SHEET 1 880 680
WIRE 224 -384 -208 -384
WIRE -304 -304 -352 -304
WIRE -208 -304 -208 -384
WIRE -208 -304 -240 -304
WIRE -48 -272 -48 -304
WIRE -208 -224 -208 -304
WIRE -48 -160 -48 -192
WIRE 32 -160 -48 -160
WIRE 160 -160 96 -160
WIRE 160 -128 160 -160
WIRE -48 -96 -48 -160
WIRE -528 -80 -624 -80
WIRE -352 -80 -352 -304
WIRE -352 -80 -448 -80
WIRE -304 -80 -352 -80
WIRE -208 -80 -208 -144
WIRE -208 -80 -240 -80
WIRE -80 -80 -208 -80
WIRE 224 -64 224 -384
WIRE 224 -64 -16 -64
WIRE 304 -64 224 -64
WIRE -80 -48 -144 -48
WIRE -624 0 -624 -80
WIRE -352 0 -352 -80
WIRE -224 32 -272 32
WIRE -144 32 -144 -48
WIRE -272 64 -272 32
WIRE -144 80 -144 32
WIRE -624 160 -624 80
WIRE -352 160 -352 80
WIRE -352 160 -624 160
WIRE -352 176 -352 160
WIRE -272 176 -272 144
WIRE -144 176 -144 160
WIRE -48 176 -48 -32
FLAG -352 176 0
FLAG -144 176 0
FLAG -272 176 0
FLAG -48 176 0
FLAG -48 -304 0
FLAG 160 -128 0
FLAG 304 -64 Vout
IOPIN 304 -64 Out
FLAG -624 -80 Vin
IOPIN -624 -80 In
SYMBOL voltage -624 -16 R0
WINDOW 123 39 47 Left 2
WINDOW 39 0 0 Left 0
SYMATTR InstName Vin
SYMATTR Value ""
SYMATTR Value2 AC 0.5
SYMBOL res -432 -96 R90
WINDOW 0 0 56 VBottom 2
WINDOW 3 32 56 VTop 2
SYMATTR InstName R1
SYMATTR Value 18k
SYMBOL res -336 96 R180
WINDOW 0 36 76 Left 2
WINDOW 3 36 40 Left 2
SYMATTR InstName R2
SYMATTR Value 100k
SYMBOL res -192 -128 R180
WINDOW 0 36 76 Left 2
WINDOW 3 36 40 Left 2
SYMATTR InstName R3
SYMATTR Value 560k
SYMBOL cap -240 -96 R90
WINDOW 0 0 32 VBottom 2
WINDOW 3 32 32 VTop 2
SYMATTR InstName C1
SYMATTR Value 10n
SYMBOL cap -240 -320 R90
WINDOW 0 0 32 VBottom 2
WINDOW 3 32 32 VTop 2
SYMATTR InstName C2
SYMATTR Value 270p
SYMBOL OpAmps\\opamp2 -48 -128 R0
SYMATTR InstName U1
SYMATTR Value LM741
SYMBOL res -160 64 R0
SYMATTR InstName R4
SYMATTR Value 1k
SYMBOL res -128 16 R90
WINDOW 0 0 56 VBottom 2
WINDOW 3 32 56 VTop 2
SYMATTR InstName R5
SYMATTR Value 1k
SYMBOL voltage -272 48 R0
WINDOW 0 33 70 Left 2
WINDOW 123 0 0 Left 0
WINDOW 39 0 0 Left 0
SYMATTR InstName Vcc2
SYMATTR Value 12
SYMBOL voltage -48 -176 R180
WINDOW 0 41 44 Left 2
WINDOW 3 24 16 Left 2
WINDOW 123 0 0 Left 0
WINDOW 39 0 0 Left 0
SYMATTR InstName Vcc1
SYMATTR Value 12
SYMBOL cap 96 -176 R90
WINDOW 0 0 32 VBottom 2
WINDOW 3 32 32 VTop 2
SYMATTR InstName C3
SYMATTR Value 10µ
TEXT -720 288 Left 2 !.include LM741.cir
TEXT -720 320 Left 2 !.ac dec 1000 1 1000000
